* NGSPICE file created from heichips25_tiny_wrapper2.ext - technology: ihp-sg13g2

* Black-box entry subcircuit for sg13g2_fill_1 abstract view
.subckt sg13g2_fill_1 VDD VSS
.ends

* Black-box entry subcircuit for sg13g2_dfrbpq_1 abstract view
.subckt sg13g2_dfrbpq_1 RESET_B VSS VDD D Q CLK
.ends

* Black-box entry subcircuit for sg13g2_o21ai_1 abstract view
.subckt sg13g2_o21ai_1 B1 VDD Y VSS A1 A2
.ends

* Black-box entry subcircuit for sg13g2_nand2b_1 abstract view
.subckt sg13g2_nand2b_1 Y B A_N VDD VSS
.ends

* Black-box entry subcircuit for sg13g2_fill_2 abstract view
.subckt sg13g2_fill_2 VDD VSS
.ends

* Black-box entry subcircuit for sg13g2_a21oi_1 abstract view
.subckt sg13g2_a21oi_1 VSS VDD A1 A2 Y B1
.ends

* Black-box entry subcircuit for sg13g2_buf_8 abstract view
.subckt sg13g2_buf_8 A X VDD VSS
.ends

* Black-box entry subcircuit for sg13g2_inv_1 abstract view
.subckt sg13g2_inv_1 VDD Y A VSS
.ends

* Black-box entry subcircuit for sg13g2_nand4_1 abstract view
.subckt sg13g2_nand4_1 B C A Y VDD VSS D
.ends

* Black-box entry subcircuit for sg13g2_tielo abstract view
.subckt sg13g2_tielo VDD VSS L_LO
.ends

* Black-box entry subcircuit for sg13g2_nand2_1 abstract view
.subckt sg13g2_nand2_1 Y A B VDD VSS
.ends

* Black-box entry subcircuit for sg13g2_decap_8 abstract view
.subckt sg13g2_decap_8 VDD VSS
.ends

* Black-box entry subcircuit for sg13g2_decap_4 abstract view
.subckt sg13g2_decap_4 VDD VSS
.ends

* Black-box entry subcircuit for sg13g2_xor2_1 abstract view
.subckt sg13g2_xor2_1 B A X VDD VSS
.ends

* Black-box entry subcircuit for sg13g2_nor2b_1 abstract view
.subckt sg13g2_nor2b_1 A B_N Y VDD VSS
.ends

* Black-box entry subcircuit for sg13g2_nor2_1 abstract view
.subckt sg13g2_nor2_1 A B Y VDD VSS
.ends

* Black-box entry subcircuit for sg13g2_tiehi abstract view
.subckt sg13g2_tiehi VDD VSS L_HI
.ends

* Black-box entry subcircuit for sg13g2_dlygate4sd3_1 abstract view
.subckt sg13g2_dlygate4sd3_1 A VDD VSS X
.ends

* Black-box entry subcircuit for sg13g2_a22oi_1 abstract view
.subckt sg13g2_a22oi_1 Y B1 B2 A2 A1 VDD VSS
.ends

* Black-box entry subcircuit for sg13g2_nor3_1 abstract view
.subckt sg13g2_nor3_1 A B C Y VDD VSS
.ends

* Black-box entry subcircuit for sg13g2_mux2_1 abstract view
.subckt sg13g2_mux2_1 A0 A1 S X VDD VSS
.ends

* Black-box entry subcircuit for sg13g2_xnor2_1 abstract view
.subckt sg13g2_xnor2_1 Y A B VDD VSS
.ends

* Black-box entry subcircuit for sg13g2_or2_1 abstract view
.subckt sg13g2_or2_1 VSS VDD X B A
.ends

* Black-box entry subcircuit for sg13g2_buf_1 abstract view
.subckt sg13g2_buf_1 A X VDD VSS
.ends

* Black-box entry subcircuit for sg13g2_buf_16 abstract view
.subckt sg13g2_buf_16 X A VDD VSS
.ends

* Black-box entry subcircuit for sg13g2_a221oi_1 abstract view
.subckt sg13g2_a221oi_1 VDD VSS B2 C1 B1 A1 Y A2
.ends

* Black-box entry subcircuit for sg13g2_and2_1 abstract view
.subckt sg13g2_and2_1 A B X VDD VSS
.ends

* Black-box entry subcircuit for sg13g2_and3_1 abstract view
.subckt sg13g2_and3_1 X A B C VDD VSS
.ends

* Black-box entry subcircuit for sg13g2_nand3b_1 abstract view
.subckt sg13g2_nand3b_1 B C Y VDD VSS A_N
.ends

* Black-box entry subcircuit for sg13g2_nand3_1 abstract view
.subckt sg13g2_nand3_1 B C A Y VDD VSS
.ends

* Black-box entry subcircuit for sg13g2_a21o_1 abstract view
.subckt sg13g2_a21o_1 A2 A1 B1 X VDD VSS
.ends

* Black-box entry subcircuit for sg13g2_nor4_1 abstract view
.subckt sg13g2_nor4_1 A B C D Y VDD VSS
.ends

* Black-box entry subcircuit for sg13g2_and4_1 abstract view
.subckt sg13g2_and4_1 A B C D X VDD VSS
.ends

* Black-box entry subcircuit for sg13g2_or4_1 abstract view
.subckt sg13g2_or4_1 A B C D X VDD VSS
.ends

* Black-box entry subcircuit for sg13g2_buf_2 abstract view
.subckt sg13g2_buf_2 A X VDD VSS
.ends

* Black-box entry subcircuit for sg13g2_mux4_1 abstract view
.subckt sg13g2_mux4_1 S0 A0 A1 A2 A3 S1 X VDD VSS
.ends

* Black-box entry subcircuit for sg13g2_or3_1 abstract view
.subckt sg13g2_or3_1 A B C X VDD VSS
.ends

* Black-box entry subcircuit for sg13g2_inv_4 abstract view
.subckt sg13g2_inv_4 A Y VDD VSS
.ends

* Black-box entry subcircuit for sg13g2_nor4_2 abstract view
.subckt sg13g2_nor4_2 A B C Y VSS VDD D
.ends

* Black-box entry subcircuit for sg13g2_inv_2 abstract view
.subckt sg13g2_inv_2 Y A VDD VSS
.ends

* Black-box entry subcircuit for sg13g2_buf_4 abstract view
.subckt sg13g2_buf_4 X A VDD VSS
.ends

* Black-box entry subcircuit for sg13g2_lgcp_1 abstract view
.subckt sg13g2_lgcp_1 GATE CLK GCLK VDD VSS
.ends

.subckt heichips25_tiny_wrapper2 VGND VPWR clk ena rst_n ui_in[0] ui_in[1] ui_in[2]
+ ui_in[3] ui_in[4] ui_in[5] ui_in[6] ui_in[7] uio_in[0] uio_in[1] uio_in[2] uio_in[3]
+ uio_in[4] uio_in[5] uio_in[6] uio_in[7] uio_oe[0] uio_oe[1] uio_oe[2] uio_oe[3]
+ uio_oe[4] uio_oe[5] uio_oe[6] uio_oe[7] uio_out[0] uio_out[1] uio_out[2] uio_out[3]
+ uio_out[4] uio_out[5] uio_out[6] uio_out[7] uo_out[0] uo_out[1] uo_out[2] uo_out[3]
+ uo_out[4] uo_out[5] uo_out[6] uo_out[7]
XFILLER_36_19 VPWR VGND sg13g2_fill_1
Xheichips25_can_lehmann_fsm__2823_ net560 VGND VPWR heichips25_can_lehmann_fsm/_0048_
+ heichips25_can_lehmann_fsm__2823_/Q clknet_leaf_9_clk sg13g2_dfrbpq_1
Xheichips25_can_lehmann_fsm__2754_ heichips25_can_lehmann_fsm/net498 VPWR heichips25_can_lehmann_fsm/_0843_
+ VGND heichips25_can_lehmann_fsm__3052_/Q heichips25_can_lehmann_fsm/net426 sg13g2_o21ai_1
Xheichips25_can_lehmann_fsm__1705_ heichips25_can_lehmann_fsm/_1029_ heichips25_can_lehmann_fsm/_1028_
+ heichips25_can_lehmann_fsm/_1022_ VPWR VGND sg13g2_nand2b_1
XFILLER_23_612 VPWR VGND sg13g2_fill_2
Xheichips25_can_lehmann_fsm__2685_ VGND VPWR heichips25_can_lehmann_fsm/_0874_ heichips25_can_lehmann_fsm/net359
+ heichips25_can_lehmann_fsm/_0242_ heichips25_can_lehmann_fsm/_0808_ sg13g2_a21oi_1
Xclkbuf_4_12_0_heichips25_sap3\_sap_3_inst.alu_inst.clk clknet_0_heichips25_sap3\/sap_3_inst.alu_inst.clk
+ clknet_4_12_0_heichips25_sap3\/sap_3_inst.alu_inst.clk VPWR VGND sg13g2_buf_8
Xheichips25_can_lehmann_fsm__1636_ VPWR heichips25_can_lehmann_fsm/_0960_ heichips25_can_lehmann_fsm/net965
+ VGND sg13g2_inv_1
XFILLER_23_667 VPWR VGND sg13g2_fill_1
Xheichips25_can_lehmann_fsm__1567_ VPWR heichips25_can_lehmann_fsm/_0891_ heichips25_can_lehmann_fsm/net889
+ VGND sg13g2_inv_1
XFILLER_7_7 VPWR VGND sg13g2_fill_2
Xheichips25_can_lehmann_fsm__2119_ heichips25_can_lehmann_fsm/_0455_ heichips25_can_lehmann_fsm/_0456_
+ heichips25_can_lehmann_fsm/_0454_ heichips25_can_lehmann_fsm/_0458_ VPWR VGND heichips25_can_lehmann_fsm/_0457_
+ sg13g2_nand4_1
XFILLER_45_214 VPWR VGND sg13g2_fill_2
Xheichips25_sap3__3120_ heichips25_sap3/_1581_ VPWR heichips25_sap3/_0733_ VGND heichips25_sap3/net243
+ heichips25_sap3/_0307_ sg13g2_o21ai_1
XFILLER_26_41 VPWR VGND sg13g2_fill_2
X_16__518 VPWR VGND net517 sg13g2_tielo
Xheichips25_sap3__3051_ heichips25_sap3/_0664_ heichips25_sap3/_0660_ heichips25_sap3/_0662_
+ VPWR VGND sg13g2_nand2_1
Xheichips25_sap3__2002_ VPWR heichips25_sap3/_1428_ heichips25_sap3__4040_/Q VGND
+ sg13g2_inv_1
XFILLER_42_51 VPWR VGND sg13g2_fill_2
XFILLER_9_126 VPWR VGND sg13g2_decap_8
XFILLER_9_137 VPWR VGND sg13g2_decap_4
XFILLER_10_840 VPWR VGND sg13g2_fill_2
Xheichips25_sap3__3953_ heichips25_sap3/net440 VGND VPWR heichips25_sap3/_0094_ heichips25_sap3__3953_/Q
+ heichips25_sap3__4017_/CLK sg13g2_dfrbpq_1
Xheichips25_sap3__3884_ heichips25_sap3/net450 VGND VPWR heichips25_sap3/_0025_ heichips25_sap3__3884_/Q
+ heichips25_sap3__3922_/CLK sg13g2_dfrbpq_1
Xheichips25_sap3__2904_ heichips25_sap3/_0540_ heichips25_sap3/_0541_ heichips25_sap3/_0539_
+ heichips25_sap3/_0544_ VPWR VGND heichips25_sap3/_0543_ sg13g2_nand4_1
Xheichips25_sap3__2835_ heichips25_sap3/net159 VPWR heichips25_sap3/_0478_ VGND heichips25_sap3/net284
+ heichips25_sap3__3917_/Q sg13g2_o21ai_1
Xheichips25_sap3__2766_ heichips25_sap3/_0411_ heichips25_sap3/_0381_ heichips25_sap3/_0412_
+ VPWR VGND sg13g2_xor2_1
XFILLER_1_571 VPWR VGND sg13g2_decap_4
Xheichips25_sap3__2697_ heichips25_sap3/_1887_ heichips25_sap3/_1894_ heichips25_sap3/_0343_
+ VPWR VGND sg13g2_nor2b_1
Xheichips25_sap3__3318_ heichips25_sap3/_0929_ heichips25_sap3/net97 heichips25_sap3/_0928_
+ VPWR VGND sg13g2_nand2_1
XFILLER_45_792 VPWR VGND sg13g2_fill_2
XFILLER_17_461 VPWR VGND sg13g2_decap_8
Xheichips25_sap3__3249_ heichips25_sap3/_0731_ heichips25_sap3/net166 heichips25_sap3/_0862_
+ VPWR VGND sg13g2_nor2_1
Xheichips25_can_lehmann_fsm__2470_ heichips25_can_lehmann_fsm/net487 VPWR heichips25_can_lehmann_fsm/_0701_
+ VGND heichips25_can_lehmann_fsm__2910_/Q heichips25_can_lehmann_fsm/net418 sg13g2_o21ai_1
Xheichips25_can_lehmann_fsm__3022_ net706 VGND VPWR heichips25_can_lehmann_fsm/_0247_
+ heichips25_can_lehmann_fsm__3022_/Q clknet_leaf_6_clk sg13g2_dfrbpq_1
Xheichips25_can_lehmann_fsm__2870__756 VPWR VGND net755 sg13g2_tiehi
XFILLER_28_748 VPWR VGND sg13g2_fill_2
Xheichips25_can_lehmann_fsm__2806_ net594 VGND VPWR heichips25_can_lehmann_fsm/net1237
+ heichips25_can_lehmann_fsm__2806_/Q clknet_leaf_5_clk sg13g2_dfrbpq_1
XFILLER_42_217 VPWR VGND sg13g2_decap_8
XFILLER_27_269 VPWR VGND sg13g2_decap_8
Xheichips25_can_lehmann_fsm__2737_ VGND VPWR heichips25_can_lehmann_fsm/_0861_ heichips25_can_lehmann_fsm/net390
+ heichips25_can_lehmann_fsm/_0268_ heichips25_can_lehmann_fsm/_0834_ sg13g2_a21oi_1
Xheichips25_can_lehmann_fsm__2668_ heichips25_can_lehmann_fsm/net483 VPWR heichips25_can_lehmann_fsm/_0800_
+ VGND heichips25_can_lehmann_fsm__3008_/Q heichips25_can_lehmann_fsm/net375 sg13g2_o21ai_1
Xheichips25_can_lehmann_fsm_hold858 heichips25_can_lehmann_fsm__2850_/Q VPWR VGND
+ heichips25_can_lehmann_fsm/net857 sg13g2_dlygate4sd3_1
Xheichips25_can_lehmann_fsm__1619_ VPWR heichips25_can_lehmann_fsm/_0943_ heichips25_can_lehmann_fsm/net916
+ VGND sg13g2_inv_1
Xheichips25_can_lehmann_fsm_hold847 heichips25_can_lehmann_fsm__2975_/Q VPWR VGND
+ heichips25_can_lehmann_fsm/net846 sg13g2_dlygate4sd3_1
Xheichips25_can_lehmann_fsm_hold869 heichips25_can_lehmann_fsm/_0234_ VPWR VGND heichips25_can_lehmann_fsm/net868
+ sg13g2_dlygate4sd3_1
XFILLER_12_21 VPWR VGND sg13g2_decap_4
Xheichips25_can_lehmann_fsm__2599_ VGND VPWR heichips25_can_lehmann_fsm/_0898_ heichips25_can_lehmann_fsm/net407
+ heichips25_can_lehmann_fsm/_0199_ heichips25_can_lehmann_fsm/_0765_ sg13g2_a21oi_1
XFILLER_10_169 VPWR VGND sg13g2_decap_4
XFILLER_12_76 VPWR VGND sg13g2_fill_2
Xheichips25_sap3__2620_ heichips25_sap3/_0289_ heichips25_sap3/net1130 heichips25_sap3/_1431_
+ VPWR VGND sg13g2_nand2_1
XFILLER_5_4 VPWR VGND sg13g2_decap_8
XFILLER_2_324 VPWR VGND sg13g2_fill_1
Xheichips25_can_lehmann_fsm__2916__664 VPWR VGND net663 sg13g2_tiehi
Xheichips25_sap3__2551_ heichips25_sap3/_0226_ heichips25_sap3/net80 heichips25_sap3__4022_/Q
+ heichips25_sap3/net85 heichips25_sap3__3950_/Q VPWR VGND sg13g2_a22oi_1
Xheichips25_sap3__2482_ heichips25_sap3/_1883_ heichips25_sap3/_1884_ heichips25_sap3/net168
+ heichips25_sap3/_1895_ VPWR VGND sg13g2_nor3_1
XFILLER_18_225 VPWR VGND sg13g2_fill_2
Xheichips25_sap3__3103_ heichips25_sap3/_0716_ heichips25_sap3/_0654_ heichips25_sap3/_1441_
+ heichips25_sap3/_1467_ heichips25_sap3/_1457_ VPWR VGND sg13g2_a22oi_1
XFILLER_14_431 VPWR VGND sg13g2_fill_2
Xheichips25_sap3__3034_ heichips25_sap3/net263 VPWR heichips25_sap3/_0647_ VGND heichips25_sap3/_0644_
+ heichips25_sap3/_0645_ sg13g2_o21ai_1
XFILLER_14_464 VPWR VGND sg13g2_fill_2
XFILLER_18_1015 VPWR VGND sg13g2_fill_1
Xheichips25_sap3__3936_ heichips25_sap3/net441 VGND VPWR heichips25_sap3/_0077_ heichips25_sap3__3936_/Q
+ heichips25_sap3__4016_/CLK sg13g2_dfrbpq_1
XFILLER_6_674 VPWR VGND sg13g2_fill_2
XFILLER_5_162 VPWR VGND sg13g2_decap_8
Xheichips25_sap3__3867_ heichips25_sap3__3886_/Q heichips25_sap3/net1143 heichips25_sap3/_0007_
+ heichips25_sap3/_0194_ VPWR VGND sg13g2_mux2_1
Xheichips25_sap3__2818_ heichips25_sap3/_0462_ heichips25_sap3/_1381_ heichips25_sap3/net212
+ VPWR VGND sg13g2_xnor2_1
Xheichips25_sap3__3798_ heichips25_sap3/_1307_ heichips25_sap3/_1278_ heichips25_sap3__4006_/Q
+ heichips25_sap3/_1265_ heichips25_sap3__3998_/Q VPWR VGND sg13g2_a22oi_1
Xheichips25_can_lehmann_fsm__2817__573 VPWR VGND net572 sg13g2_tiehi
Xheichips25_sap3__2749_ heichips25_sap3/_1383_ heichips25_sap3__3919_/Q heichips25_sap3/_0395_
+ VPWR VGND sg13g2_nor2_1
Xheichips25_can_lehmann_fsm__1970_ VGND VPWR heichips25_can_lehmann_fsm/_0330_ heichips25_can_lehmann_fsm/_0329_
+ heichips25_can_lehmann_fsm/net192 sg13g2_or2_1
XFILLER_49_361 VPWR VGND sg13g2_decap_8
XFILLER_37_578 VPWR VGND sg13g2_fill_2
XFILLER_18_792 VPWR VGND sg13g2_decap_8
XFILLER_24_228 VPWR VGND sg13g2_fill_1
Xheichips25_can_lehmann_fsm__2522_ heichips25_can_lehmann_fsm/net483 VPWR heichips25_can_lehmann_fsm/_0727_
+ VGND heichips25_can_lehmann_fsm/net1079 heichips25_can_lehmann_fsm/net415 sg13g2_o21ai_1
XFILLER_33_751 VPWR VGND sg13g2_decap_4
Xheichips25_can_lehmann_fsm__2453_ VGND VPWR heichips25_can_lehmann_fsm/_0934_ heichips25_can_lehmann_fsm/net365
+ heichips25_can_lehmann_fsm/_0126_ heichips25_can_lehmann_fsm/_0692_ sg13g2_a21oi_1
Xheichips25_can_lehmann_fsm__2384_ heichips25_can_lehmann_fsm/net481 VPWR heichips25_can_lehmann_fsm/_0658_
+ VGND heichips25_can_lehmann_fsm/net912 heichips25_can_lehmann_fsm/net372 sg13g2_o21ai_1
Xheichips25_can_lehmann_fsm_fanout500 heichips25_can_lehmann_fsm/net502 heichips25_can_lehmann_fsm/net500
+ VPWR VGND sg13g2_buf_1
Xheichips25_can_lehmann_fsm__3005_ net553 VGND VPWR heichips25_can_lehmann_fsm/_0230_
+ heichips25_can_lehmann_fsm__3005_/Q clknet_leaf_12_clk sg13g2_dfrbpq_1
Xheichips25_can_lehmann_fsm__3046__663 VPWR VGND net662 sg13g2_tiehi
XFILLER_43_559 VPWR VGND sg13g2_decap_8
XFILLER_15_228 VPWR VGND sg13g2_fill_1
XFILLER_15_239 VPWR VGND sg13g2_fill_2
XFILLER_7_416 VPWR VGND sg13g2_decap_4
Xheichips25_sap3__1982_ VPWR heichips25_sap3/_1408_ heichips25_sap3__3984_/Q VGND
+ sg13g2_inv_1
Xheichips25_sap3__3721_ heichips25_sap3__4022_/Q heichips25_sap3/_1068_ heichips25_sap3/net117
+ heichips25_sap3/_0163_ VPWR VGND sg13g2_mux2_1
Xheichips25_can_lehmann_fsm__2957__797 VPWR VGND net796 sg13g2_tiehi
Xheichips25_sap3__3652_ heichips25_sap3/_1199_ VPWR heichips25_sap3/_1200_ VGND heichips25_sap3/net48
+ heichips25_sap3/net51 sg13g2_o21ai_1
Xheichips25_sap3__2603_ heichips25_sap3/_0275_ heichips25_sap3/_0273_ heichips25_sap3/_0274_
+ VPWR VGND sg13g2_xnor2_1
Xheichips25_sap3__3583_ heichips25_sap3__3967_/Q heichips25_sap3/net135 heichips25_sap3/_1160_
+ VPWR VGND sg13g2_nor2_1
XFILLER_38_309 VPWR VGND sg13g2_fill_1
Xheichips25_sap3__2534_ VGND VPWR heichips25_sap3/_0206_ heichips25_sap3/_0210_ heichips25_sap3/_0211_
+ heichips25_sap3/net67 sg13g2_a21oi_1
XFILLER_19_501 VPWR VGND sg13g2_fill_2
XFILLER_19_512 VPWR VGND sg13g2_fill_2
Xheichips25_sap3__2465_ heichips25_sap3/net215 heichips25_sap3/_1877_ heichips25_sap3/_1878_
+ VPWR VGND sg13g2_nor2_1
Xclkbuf_5_19__f_heichips25_sap3\_sap_3_inst.alu_inst.clk clkload24/A clknet_4_9_0_heichips25_sap3\/sap_3_inst.alu_inst.clk
+ VPWR VGND sg13g2_buf_16
Xheichips25_sap3__2396_ heichips25_sap3/_1815_ heichips25_sap3/net155 heichips25_sap3/_1814_
+ VPWR VGND sg13g2_nand2_1
Xheichips25_sap3__4066_ heichips25_sap3/net433 VGND VPWR heichips25_sap3/_0006_ heichips25_sap3__4066_/Q
+ net825 sg13g2_dfrbpq_1
Xheichips25_sap3__3017_ heichips25_sap3/_0634_ VPWR heichips25_sap3/_0067_ VGND heichips25_sap3/net232
+ heichips25_sap3/_0242_ sg13g2_o21ai_1
XFILLER_15_784 VPWR VGND sg13g2_fill_1
XFILLER_14_294 VPWR VGND sg13g2_decap_4
XFILLER_9_99 VPWR VGND sg13g2_fill_2
Xheichips25_sap3__3919_ heichips25_sap3/net448 VGND VPWR heichips25_sap3/_0060_ heichips25_sap3__3919_/Q
+ heichips25_sap3__3920_/CLK sg13g2_dfrbpq_1
XFILLER_29_309 VPWR VGND sg13g2_decap_4
Xheichips25_can_lehmann_fsm__1953_ VPWR VGND heichips25_can_lehmann_fsm/net195 heichips25_can_lehmann_fsm/_0315_
+ heichips25_can_lehmann_fsm/_0314_ heichips25_can_lehmann_fsm/_0308_ heichips25_can_lehmann_fsm/_0003_
+ heichips25_can_lehmann_fsm/_0311_ sg13g2_a221oi_1
XFILLER_38_898 VPWR VGND sg13g2_decap_8
Xheichips25_can_lehmann_fsm__1884_ heichips25_can_lehmann_fsm/_1197_ heichips25_can_lehmann_fsm/net338
+ heichips25_can_lehmann_fsm/_1165_ heichips25_can_lehmann_fsm/_1198_ VPWR VGND sg13g2_mux2_1
Xheichips25_sap3_fanout437 _01_ heichips25_sap3/net437 VPWR VGND sg13g2_buf_1
Xheichips25_sap3_fanout448 heichips25_sap3/net449 heichips25_sap3/net448 VPWR VGND
+ sg13g2_buf_1
XFILLER_25_559 VPWR VGND sg13g2_decap_8
Xheichips25_sap3_fanout459 heichips25_sap3/net461 heichips25_sap3/net459 VPWR VGND
+ sg13g2_buf_1
XFILLER_40_507 VPWR VGND sg13g2_fill_2
Xheichips25_sap3_hold1059 heichips25_sap3__4073_/A VPWR VGND heichips25_sap3/net1058
+ sg13g2_dlygate4sd3_1
Xheichips25_can_lehmann_fsm__2505_ VGND VPWR heichips25_can_lehmann_fsm/_0921_ heichips25_can_lehmann_fsm/net366
+ heichips25_can_lehmann_fsm/_0152_ heichips25_can_lehmann_fsm/_0718_ sg13g2_a21oi_1
Xheichips25_can_lehmann_fsm__2436_ heichips25_can_lehmann_fsm/net477 VPWR heichips25_can_lehmann_fsm/_0684_
+ VGND heichips25_can_lehmann_fsm/net989 heichips25_can_lehmann_fsm/net368 sg13g2_o21ai_1
XFILLER_20_264 VPWR VGND sg13g2_decap_8
Xheichips25_can_lehmann_fsm__2367_ VGND VPWR heichips25_can_lehmann_fsm/_0960_ heichips25_can_lehmann_fsm/net431
+ heichips25_can_lehmann_fsm/_0083_ heichips25_can_lehmann_fsm/_0649_ sg13g2_a21oi_1
Xheichips25_can_lehmann_fsm__2298_ heichips25_can_lehmann_fsm/_0609_ heichips25_can_lehmann_fsm/net1200
+ heichips25_can_lehmann_fsm/_0608_ VPWR VGND sg13g2_xnor2_1
Xheichips25_can_lehmann_fsm_fanout330 heichips25_can_lehmann_fsm/_1175_ heichips25_can_lehmann_fsm/net330
+ VPWR VGND sg13g2_buf_1
Xheichips25_can_lehmann_fsm_fanout363 heichips25_can_lehmann_fsm/net364 heichips25_can_lehmann_fsm/net363
+ VPWR VGND sg13g2_buf_1
Xheichips25_can_lehmann_fsm_fanout374 heichips25_can_lehmann_fsm/net375 heichips25_can_lehmann_fsm/net374
+ VPWR VGND sg13g2_buf_1
Xheichips25_can_lehmann_fsm_fanout352 heichips25_can_lehmann_fsm/net1273 heichips25_can_lehmann_fsm/net352
+ VPWR VGND sg13g2_buf_1
XFILLER_0_625 VPWR VGND sg13g2_fill_1
Xheichips25_can_lehmann_fsm_fanout396 heichips25_can_lehmann_fsm/net397 heichips25_can_lehmann_fsm/net396
+ VPWR VGND sg13g2_buf_1
Xheichips25_can_lehmann_fsm_fanout385 heichips25_can_lehmann_fsm/net387 heichips25_can_lehmann_fsm/net385
+ VPWR VGND sg13g2_buf_1
Xheichips25_sap3__2250_ heichips25_sap3/_1462_ heichips25_sap3/_1615_ heichips25_sap3/_1655_
+ heichips25_sap3/_1671_ VPWR VGND sg13g2_nor3_1
XFILLER_16_504 VPWR VGND sg13g2_decap_8
Xheichips25_sap3__2181_ heichips25_sap3/_1602_ heichips25_sap3/_1551_ heichips25_sap3/_1567_
+ VPWR VGND sg13g2_nand2_1
XFILLER_16_526 VPWR VGND sg13g2_fill_2
XFILLER_18_97 VPWR VGND sg13g2_fill_2
XFILLER_43_367 VPWR VGND sg13g2_fill_2
XFILLER_12_754 VPWR VGND sg13g2_decap_4
XFILLER_7_257 VPWR VGND sg13g2_decap_4
XFILLER_3_430 VPWR VGND sg13g2_decap_4
Xheichips25_sap3__1965_ VPWR heichips25_sap3/_1391_ heichips25_sap3__3948_/Q VGND
+ sg13g2_inv_1
XFILLER_4_964 VPWR VGND sg13g2_fill_2
XFILLER_3_463 VPWR VGND sg13g2_fill_2
Xheichips25_sap3__3704_ VGND VPWR heichips25_sap3/_1100_ heichips25_sap3/_1204_ heichips25_sap3/_1235_
+ heichips25_sap3/net115 sg13g2_a21oi_1
XFILLER_3_485 VPWR VGND sg13g2_decap_8
Xheichips25_sap3__3635_ heichips25_sap3/_1190_ VPWR heichips25_sap3/_0129_ VGND heichips25_sap3/_1063_
+ heichips25_sap3/net93 sg13g2_o21ai_1
Xheichips25_sap3__3566_ heichips25_sap3/net134 heichips25_sap3/_1054_ heichips25_sap3/_1147_
+ VPWR VGND sg13g2_nor2_1
XFILLER_15_6 VPWR VGND sg13g2_fill_1
Xheichips25_sap3__3497_ heichips25_sap3/net97 heichips25_sap3/_0911_ heichips25_sap3/_1093_
+ VPWR VGND sg13g2_and2_1
Xheichips25_sap3__2517_ heichips25_sap3/_1928_ heichips25_sap3/net82 heichips25_sap3__3963_/Q
+ heichips25_sap3/net88 heichips25_sap3__3939_/Q VPWR VGND sg13g2_a22oi_1
Xheichips25_sap3__2448_ heichips25_sap3/_1863_ heichips25_sap3/_1860_ heichips25_sap3/_1861_
+ heichips25_sap3/_1862_ VPWR VGND sg13g2_and3_1
Xheichips25_sap3__2379_ VGND VPWR heichips25_sap3/_1795_ heichips25_sap3/_1799_ heichips25_sap3/_1800_
+ heichips25_sap3/net66 sg13g2_a21oi_1
Xheichips25_sap3__4049_ heichips25_sap3/net451 VGND VPWR heichips25_sap3/_0190_ heichips25_sap3__4049_/Q
+ clknet_leaf_23_clk sg13g2_dfrbpq_1
Xheichips25_can_lehmann_fsm__2221_ heichips25_can_lehmann_fsm/net1217 VPWR heichips25_can_lehmann_fsm/_0547_
+ VGND heichips25_can_lehmann_fsm/net1279 heichips25_can_lehmann_fsm/_1104_ sg13g2_o21ai_1
Xheichips25_can_lehmann_fsm__2152_ VGND VPWR heichips25_can_lehmann_fsm/_1162_ heichips25_can_lehmann_fsm/_0482_
+ heichips25_can_lehmann_fsm/_0491_ heichips25_can_lehmann_fsm/_1139_ sg13g2_a21oi_1
Xheichips25_can_lehmann_fsm__2083_ VPWR VGND heichips25_can_lehmann_fsm__2799_/Q heichips25_can_lehmann_fsm/net182
+ heichips25_can_lehmann_fsm/net190 net15 heichips25_can_lehmann_fsm/_0426_ heichips25_can_lehmann_fsm/net195
+ sg13g2_a221oi_1
XFILLER_29_106 VPWR VGND sg13g2_fill_1
Xheichips25_can_lehmann_fsm__2985_ net684 VGND VPWR heichips25_can_lehmann_fsm/_0210_
+ heichips25_can_lehmann_fsm__2985_/Q clknet_leaf_16_clk sg13g2_dfrbpq_1
Xheichips25_can_lehmann_fsm__1936_ heichips25_can_lehmann_fsm/_0296_ heichips25_can_lehmann_fsm/_0297_
+ heichips25_can_lehmann_fsm/_0295_ heichips25_can_lehmann_fsm/_0299_ VPWR VGND heichips25_can_lehmann_fsm/_0298_
+ sg13g2_nand4_1
Xheichips25_sap3_fanout212 heichips25_sap3/_1889_ heichips25_sap3/net212 VPWR VGND
+ sg13g2_buf_1
Xheichips25_sap3_fanout201 heichips25_sap3/_0624_ heichips25_sap3/net201 VPWR VGND
+ sg13g2_buf_1
Xheichips25_sap3_fanout223 heichips25_sap3/_1622_ heichips25_sap3/net223 VPWR VGND
+ sg13g2_buf_1
Xheichips25_can_lehmann_fsm__1867_ heichips25_can_lehmann_fsm/_1179_ heichips25_can_lehmann_fsm/_1180_
+ heichips25_can_lehmann_fsm/_1178_ heichips25_can_lehmann_fsm/_1182_ VPWR VGND heichips25_can_lehmann_fsm/_1181_
+ sg13g2_nand4_1
Xheichips25_sap3_fanout256 heichips25_sap3/_1442_ heichips25_sap3/net256 VPWR VGND
+ sg13g2_buf_1
Xheichips25_sap3_fanout245 heichips25_sap3/_1509_ heichips25_sap3/net245 VPWR VGND
+ sg13g2_buf_1
Xheichips25_sap3_fanout234 heichips25_sap3/net235 heichips25_sap3/net234 VPWR VGND
+ sg13g2_buf_1
Xheichips25_sap3_fanout267 heichips25_sap3__3925_/Q heichips25_sap3/net267 VPWR VGND
+ sg13g2_buf_1
Xheichips25_sap3_fanout278 heichips25_sap3/net279 heichips25_sap3/net278 VPWR VGND
+ sg13g2_buf_1
Xheichips25_sap3_fanout289 heichips25_sap3__3899_/Q heichips25_sap3/net289 VPWR VGND
+ sg13g2_buf_1
Xheichips25_can_lehmann_fsm__1798_ heichips25_can_lehmann_fsm/_1114_ heichips25_can_lehmann_fsm/_1111_
+ heichips25_can_lehmann_fsm/_1113_ heichips25_can_lehmann_fsm/net301 heichips25_can_lehmann_fsm/_0949_
+ VPWR VGND sg13g2_a22oi_1
Xheichips25_can_lehmann_fsm__2419_ VGND VPWR heichips25_can_lehmann_fsm/_0944_ heichips25_can_lehmann_fsm/net384
+ heichips25_can_lehmann_fsm/_0109_ heichips25_can_lehmann_fsm/_0675_ sg13g2_a21oi_1
XFILLER_5_728 VPWR VGND sg13g2_fill_2
XFILLER_4_227 VPWR VGND sg13g2_decap_8
XFILLER_20_21 VPWR VGND sg13g2_decap_8
XFILLER_1_912 VPWR VGND sg13g2_decap_8
Xheichips25_can_lehmann_fsm_fanout182 heichips25_can_lehmann_fsm/net183 heichips25_can_lehmann_fsm/net182
+ VPWR VGND sg13g2_buf_1
Xheichips25_can_lehmann_fsm_fanout160 heichips25_can_lehmann_fsm/net163 heichips25_can_lehmann_fsm/net160
+ VPWR VGND sg13g2_buf_1
Xheichips25_can_lehmann_fsm_fanout171 heichips25_can_lehmann_fsm/net173 heichips25_can_lehmann_fsm/net171
+ VPWR VGND sg13g2_buf_1
Xheichips25_can_lehmann_fsm_fanout193 heichips25_can_lehmann_fsm/net194 heichips25_can_lehmann_fsm/net193
+ VPWR VGND sg13g2_buf_1
Xheichips25_sap3__3420_ VGND VPWR heichips25_sap3/net126 heichips25_sap3/_1024_ heichips25_sap3/_1027_
+ heichips25_sap3/_1026_ sg13g2_a21oi_1
XFILLER_1_989 VPWR VGND sg13g2_decap_8
Xheichips25_sap3__3351_ heichips25_sap3/_0960_ heichips25_sap3__3959_/Q heichips25_sap3/net144
+ VPWR VGND sg13g2_nand2_1
Xheichips25_sap3__2302_ heichips25_sap3/net234 heichips25_sap3/_1722_ heichips25_sap3/_1723_
+ VPWR VGND sg13g2_nor2_1
Xheichips25_sap3__3282_ heichips25_sap3/_0894_ heichips25_sap3/net123 heichips25_sap3/_0893_
+ VPWR VGND sg13g2_nand2_1
XFILLER_28_150 VPWR VGND sg13g2_decap_8
XFILLER_45_40 VPWR VGND sg13g2_decap_4
Xheichips25_sap3__2233_ heichips25_sap3/_1653_ heichips25_sap3/net67 heichips25_sap3/_1654_
+ VPWR VGND heichips25_sap3/_1650_ sg13g2_nand3b_1
XFILLER_17_835 VPWR VGND sg13g2_fill_1
XFILLER_45_73 VPWR VGND sg13g2_decap_8
XFILLER_16_345 VPWR VGND sg13g2_decap_4
Xheichips25_sap3__2164_ heichips25_sap3/_1585_ heichips25_sap3/_1576_ heichips25_sap3/net243
+ heichips25_sap3/_1563_ heichips25_sap3/net242 VPWR VGND sg13g2_a22oi_1
Xheichips25_sap3__2095_ heichips25_sap3/_1445_ heichips25_sap3/_1505_ heichips25_sap3/_1365_
+ heichips25_sap3/_1516_ VPWR VGND sg13g2_nand3_1
XFILLER_31_359 VPWR VGND sg13g2_fill_1
XFILLER_40_882 VPWR VGND sg13g2_fill_2
XFILLER_8_555 VPWR VGND sg13g2_fill_2
XFILLER_6_34 VPWR VGND sg13g2_decap_8
XFILLER_8_588 VPWR VGND sg13g2_decap_8
XFILLER_6_67 VPWR VGND sg13g2_fill_1
XFILLER_6_89 VPWR VGND sg13g2_decap_4
Xheichips25_sap3__2997_ VGND VPWR heichips25_sap3/_0212_ heichips25_sap3/net201 heichips25_sap3/_0056_
+ heichips25_sap3/_0625_ sg13g2_a21oi_1
Xheichips25_sap3__1948_ VPWR heichips25_sap3/_1374_ heichips25_sap3/net274 VGND sg13g2_inv_1
XFILLER_20_4 VPWR VGND sg13g2_fill_2
Xheichips25_sap3__3618_ heichips25_sap3/net141 heichips25_sap3/_1064_ heichips25_sap3/_1181_
+ VPWR VGND sg13g2_and2_1
Xheichips25_sap3__3549_ heichips25_sap3/_1136_ VPWR heichips25_sap3/_0097_ VGND heichips25_sap3/_1390_
+ heichips25_sap3/net56 sg13g2_o21ai_1
Xheichips25_can_lehmann_fsm__2770_ heichips25_can_lehmann_fsm/net481 VPWR heichips25_can_lehmann_fsm/_0851_
+ VGND heichips25_can_lehmann_fsm/net1137 heichips25_can_lehmann_fsm/net400 sg13g2_o21ai_1
Xheichips25_can_lehmann_fsm__1721_ uo_out_fsm\[2\] heichips25_can_lehmann_fsm/_1041_
+ heichips25_can_lehmann_fsm/_1042_ VPWR VGND sg13g2_nand2_1
Xheichips25_can_lehmann_fsm__1652_ VPWR heichips25_can_lehmann_fsm/_0976_ heichips25_can_lehmann_fsm__2797_/Q
+ VGND sg13g2_inv_1
Xheichips25_can_lehmann_fsm__1583_ VPWR heichips25_can_lehmann_fsm/_0907_ heichips25_can_lehmann_fsm/net1027
+ VGND sg13g2_inv_1
Xclkbuf_5_2__f_heichips25_sap3\_sap_3_inst.alu_inst.clk heichips25_sap3__4014_/CLK
+ clknet_4_1_0_heichips25_sap3\/sap_3_inst.alu_inst.clk VPWR VGND sg13g2_buf_16
Xheichips25_can_lehmann_fsm__2204_ heichips25_can_lehmann_fsm/_0534_ heichips25_can_lehmann_fsm/net1180
+ heichips25_can_lehmann_fsm/_1102_ VPWR VGND sg13g2_xnor2_1
Xheichips25_can_lehmann_fsm__2135_ VGND VPWR heichips25_can_lehmann_fsm/_0942_ heichips25_can_lehmann_fsm/net303
+ heichips25_can_lehmann_fsm/_0474_ heichips25_can_lehmann_fsm/_0473_ sg13g2_a21oi_1
XFILLER_44_1000 VPWR VGND sg13g2_fill_2
Xheichips25_can_lehmann_fsm__2066_ VPWR VGND heichips25_can_lehmann_fsm/_0977_ heichips25_can_lehmann_fsm/net181
+ heichips25_can_lehmann_fsm/net184 heichips25_can_lehmann_fsm/net347 heichips25_can_lehmann_fsm/_0413_
+ heichips25_can_lehmann_fsm/net188 sg13g2_a221oi_1
XFILLER_39_971 VPWR VGND sg13g2_fill_1
XFILLER_38_492 VPWR VGND sg13g2_fill_1
Xheichips25_can_lehmann_fsm__2968_ net752 VGND VPWR heichips25_can_lehmann_fsm/_0193_
+ heichips25_can_lehmann_fsm__2968_/Q clknet_leaf_20_clk sg13g2_dfrbpq_1
Xheichips25_can_lehmann_fsm__2899_ net697 VGND VPWR heichips25_can_lehmann_fsm/net1057
+ heichips25_can_lehmann_fsm__2899_/Q clknet_leaf_21_clk sg13g2_dfrbpq_1
XFILLER_25_131 VPWR VGND sg13g2_fill_2
Xheichips25_can_lehmann_fsm__1919_ VPWR heichips25_can_lehmann_fsm/_1232_ heichips25_can_lehmann_fsm/_1231_
+ VGND sg13g2_inv_1
XFILLER_14_838 VPWR VGND sg13g2_fill_1
Xheichips25_can_lehmann_fsm__2880__736 VPWR VGND net735 sg13g2_tiehi
Xheichips25_can_lehmann_fsm_hold1110 heichips25_can_lehmann_fsm__2958_/Q VPWR VGND
+ heichips25_can_lehmann_fsm/net1109 sg13g2_dlygate4sd3_1
Xheichips25_can_lehmann_fsm_hold1154 heichips25_can_lehmann_fsm__3027_/Q VPWR VGND
+ heichips25_can_lehmann_fsm/net1153 sg13g2_dlygate4sd3_1
XFILLER_9_308 VPWR VGND sg13g2_decap_8
Xheichips25_can_lehmann_fsm_hold1165 heichips25_can_lehmann_fsm__3036_/Q VPWR VGND
+ heichips25_can_lehmann_fsm/net1164 sg13g2_dlygate4sd3_1
Xheichips25_can_lehmann_fsm_hold1143 heichips25_can_lehmann_fsm__3057_/Q VPWR VGND
+ heichips25_can_lehmann_fsm/net1142 sg13g2_dlygate4sd3_1
Xheichips25_can_lehmann_fsm_hold1187 heichips25_can_lehmann_fsm__2813_/Q VPWR VGND
+ heichips25_can_lehmann_fsm/net1186 sg13g2_dlygate4sd3_1
Xheichips25_can_lehmann_fsm_hold1176 heichips25_can_lehmann_fsm/_0044_ VPWR VGND heichips25_can_lehmann_fsm/net1175
+ sg13g2_dlygate4sd3_1
Xheichips25_sap3__2920_ heichips25_sap3/net69 heichips25_sap3/net279 heichips25_sap3/_0559_
+ heichips25_sap3/_0045_ VPWR VGND sg13g2_a21o_1
XFILLER_31_53 VPWR VGND sg13g2_fill_1
Xheichips25_sap3__2851_ VGND VPWR heichips25_sap3/_0375_ heichips25_sap3/net64 heichips25_sap3/_0494_
+ heichips25_sap3/net204 sg13g2_a21oi_1
XFILLER_31_64 VPWR VGND sg13g2_fill_2
XFILLER_5_558 VPWR VGND sg13g2_fill_2
Xheichips25_sap3_fanout62 heichips25_sap3/_0829_ heichips25_sap3/net62 VPWR VGND sg13g2_buf_1
Xheichips25_sap3_fanout51 heichips25_sap3/_0898_ heichips25_sap3/net51 VPWR VGND sg13g2_buf_1
Xheichips25_sap3_fanout84 heichips25_sap3/_1739_ heichips25_sap3/net84 VPWR VGND sg13g2_buf_1
Xoutput42 net42 uo_out[7] VPWR VGND sg13g2_buf_1
Xheichips25_sap3__2782_ heichips25_sap3/_0427_ heichips25_sap3/_0425_ heichips25_sap3/_1605_
+ heichips25_sap3/_1762_ heichips25_sap3/_1643_ VPWR VGND sg13g2_a22oi_1
Xoutput31 net31 uio_out[4] VPWR VGND sg13g2_buf_1
Xoutput20 net20 uio_oe[1] VPWR VGND sg13g2_buf_1
Xheichips25_sap3_fanout95 heichips25_sap3/_1144_ heichips25_sap3/net95 VPWR VGND sg13g2_buf_1
Xheichips25_sap3_fanout73 heichips25_sap3/net74 heichips25_sap3/net73 VPWR VGND sg13g2_buf_1
XFILLER_1_742 VPWR VGND sg13g2_fill_1
Xheichips25_sap3__3403_ heichips25_sap3/_1010_ heichips25_sap3/net132 heichips25_sap3__3993_/Q
+ heichips25_sap3/net136 heichips25_sap3__3969_/Q VPWR VGND sg13g2_a22oi_1
XFILLER_0_285 VPWR VGND sg13g2_fill_1
Xheichips25_sap3__3334_ heichips25_sap3/net52 heichips25_sap3/net50 heichips25_sap3/net48